<?xml version="1.0" encoding="UTF-8"?>

<!-- generated on 01/30/20 12:48:02 by Eclipse SUMO netedit Version 1.2.0
<configuration xmlns:xsi="http://www.w3.org/2001/XMLSchema-instance" xsi:noNamespaceSchemaLocation="http://sumo.dlr.de/xsd/netconvertConfiguration.xsd">

    <output>
        <output-file value="D:\SCALE_Demo_toNCS\airport.net.xml"/>
    </output>

    <processing>
        <offset.disable-normalization value="true"/>
    </processing>

    <junctions>
        <no-turnarounds value="true"/>
    </junctions>

</configuration>
-->

<net version="1.1" junctionCornerDetail="5" limitTurnSpeed="5.50" xmlns:xsi="http://www.w3.org/2001/XMLSchema-instance" xsi:noNamespaceSchemaLocation="http://sumo.dlr.de/xsd/net_file.xsd">

    <location netOffset="0.00,0.00" convBoundary="-490.00,-250.00,540.00,200.00" origBoundary="10000000000.00,10000000000.00,-10000000000.00,-10000000000.00" projParameter="!"/>

    <edge id=":gneJ0_0" function="internal">
        <lane id=":gneJ0_0_0" index="0" speed="10.36" length="24.51" shape="-81.60,159.18 -80.40,154.46 -76.81,151.09 -70.83,149.07 -62.44,148.40"/>
    </edge>
    <edge id=":gneJ0_1" function="internal">
        <lane id=":gneJ0_1_0" index="0" speed="8.68" length="10.07" shape="-81.60,159.18 -80.06,153.97 -75.99,152.42 -75.71,152.48"/>
    </edge>
    <edge id=":gneJ0_6" function="internal">
        <lane id=":gneJ0_6_0" index="0" speed="8.68" length="12.82" shape="-75.71,152.48 -70.22,153.56 -63.58,156.42"/>
    </edge>
    <edge id=":gneJ0_2" function="internal">
        <lane id=":gneJ0_2_0" index="0" speed="7.33" length="15.88" shape="-65.01,159.28 -70.87,156.77 -75.05,155.91 -77.56,156.71 -78.40,159.18"/>
    </edge>
    <edge id=":gneJ0_3" function="internal">
        <lane id=":gneJ0_3_0" index="0" speed="6.26" length="15.29" shape="-65.01,159.28 -67.83,156.41 -68.14,152.80 -66.25,149.71 -62.44,148.40"/>
    </edge>
    <edge id=":gneJ0_4" function="internal">
        <lane id=":gneJ0_4_0" index="0" speed="5.60" length="11.85" shape="-62.44,151.60 -66.56,151.90 -68.12,152.80 -67.13,154.31 -63.58,156.42"/>
    </edge>
    <edge id=":gneJ0_5" function="internal">
        <lane id=":gneJ0_5_0" index="0" speed="9.28" length="19.46" shape="-62.44,151.60 -69.43,152.07 -74.41,153.49 -77.40,155.86 -78.40,159.18"/>
    </edge>
    <edge id=":gneJ1_0" function="internal">
        <lane id=":gneJ1_0_0" index="0" speed="3.90" length="2.58" shape="48.40,153.20 48.30,152.50 48.00,152.00 47.50,151.70 46.80,151.60"/>
    </edge>
    <edge id=":gneJ1_1" function="internal">
        <lane id=":gneJ1_1_0" index="0" speed="6.08" length="7.74" shape="46.80,148.40 48.90,148.70 50.40,149.60 51.30,151.10 51.60,153.20"/>
    </edge>
    <edge id=":gneJ10_0" function="internal">
        <lane id=":gneJ10_0_0" index="0" speed="6.51" length="9.03" shape="258.40,137.20 258.05,134.75 257.00,133.00 255.25,131.95 252.80,131.60"/>
    </edge>
    <edge id=":gneJ10_1" function="internal">
        <lane id=":gneJ10_1_0" index="0" speed="8.00" length="14.19" shape="258.40,137.20 258.95,133.35 260.60,130.60 263.35,128.95 267.20,128.40"/>
    </edge>
    <edge id=":gneJ10_2" function="internal">
        <lane id=":gneJ10_2_0" index="0" speed="6.51" length="9.03" shape="267.20,131.60 264.75,131.95 263.00,133.00 261.95,134.75 261.60,137.20"/>
    </edge>
    <edge id=":gneJ10_3" function="internal">
        <lane id=":gneJ10_3_0" index="0" speed="13.89" length="14.40" shape="267.20,131.60 252.80,131.60"/>
    </edge>
    <edge id=":gneJ10_4" function="internal">
        <lane id=":gneJ10_4_0" index="0" speed="13.89" length="14.40" shape="252.80,128.40 267.20,128.40"/>
    </edge>
    <edge id=":gneJ10_5" function="internal">
        <lane id=":gneJ10_5_0" index="0" speed="8.00" length="5.93" shape="252.80,128.40 256.65,128.95 258.40,130.00"/>
    </edge>
    <edge id=":gneJ10_6" function="internal">
        <lane id=":gneJ10_6_0" index="0" speed="8.00" length="8.26" shape="258.40,130.00 259.40,130.60 261.05,133.35 261.60,137.20"/>
    </edge>
    <edge id=":gneJ100_0" function="internal">
        <lane id=":gneJ100_0_0" index="0" speed="6.83" length="10.05" shape="-363.17,165.21 -366.00,164.18 -368.38,164.16 -370.31,165.16 -371.79,167.16"/>
    </edge>
    <edge id=":gneJ100_1" function="internal">
        <lane id=":gneJ100_1_0" index="0" speed="7.55" length="15.59" shape="-363.17,165.21 -366.87,162.65 -368.43,159.75 -367.87,156.50 -365.16,152.90"/>
    </edge>
    <edge id=":gneJ100_2" function="internal">
        <lane id=":gneJ100_2_0" index="0" speed="5.92" length="9.10" shape="-362.90,155.16 -364.48,157.26 -364.81,159.16 -363.89,160.85 -361.74,162.34"/>
    </edge>
    <edge id=":gneJ100_3" function="internal">
        <lane id=":gneJ100_3_0" index="0" speed="13.89" length="14.99" shape="-362.90,155.16 -365.47,157.90 -367.83,160.81 -369.95,163.89 -371.79,167.16"/>
    </edge>
    <edge id=":gneJ100_4" function="internal">
        <lane id=":gneJ100_4_0" index="0" speed="13.89" length="16.01" shape="-374.65,165.72 -372.72,162.33 -370.39,158.96 -367.82,155.77 -365.16,152.90"/>
    </edge>
    <edge id=":gneJ100_5" function="internal">
        <lane id=":gneJ100_5_0" index="0" speed="8.26" length="6.47" shape="-374.65,165.72 -372.37,162.56 -370.12,161.31"/>
    </edge>
    <edge id=":gneJ100_6" function="internal">
        <lane id=":gneJ100_6_0" index="0" speed="8.26" length="8.74" shape="-370.12,161.31 -369.45,160.94 -365.91,160.87 -361.74,162.34"/>
    </edge>
    <edge id=":gneJ101_0" function="internal">
        <lane id=":gneJ101_0_0" index="0" speed="8.67" length="12.69" shape="-341.41,146.08 -345.26,144.50 -348.53,143.89 -351.22,144.25 -353.33,145.59"/>
    </edge>
    <edge id=":gneJ101_1" function="internal">
        <lane id=":gneJ101_1_0" index="0" speed="7.38" length="17.76" shape="-341.41,146.08 -345.98,143.04 -347.50,140.00 -345.98,136.96 -341.41,133.92"/>
    </edge>
    <edge id=":gneJ101_2" function="internal">
        <lane id=":gneJ101_2_0" index="0" speed="5.56" length="9.40" shape="-339.98,136.78 -342.40,138.39 -343.20,140.00 -342.40,141.61 -339.98,143.22"/>
    </edge>
    <edge id=":gneJ101_3" function="internal">
        <lane id=":gneJ101_3_0" index="0" speed="13.89" length="16.05" shape="-339.98,136.78 -343.46,138.60 -347.01,140.70 -350.38,143.04 -353.33,145.59"/>
    </edge>
    <edge id=":gneJ101_4" function="internal">
        <lane id=":gneJ101_4_0" index="0" speed="13.89" length="17.07" shape="-355.59,143.33 -352.51,140.68 -348.85,138.14 -345.02,135.83 -341.41,133.92"/>
    </edge>
    <edge id=":gneJ101_5" function="internal">
        <lane id=":gneJ101_5_0" index="0" speed="9.87" length="6.21" shape="-355.59,143.33 -352.64,141.34 -350.03,140.85"/>
    </edge>
    <edge id=":gneJ101_6" function="internal">
        <lane id=":gneJ101_6_0" index="0" speed="9.87" length="10.48" shape="-350.03,140.85 -349.05,140.66 -344.83,141.29 -339.98,143.22"/>
    </edge>
    <edge id=":gneJ102_0" function="internal">
        <lane id=":gneJ102_0_0" index="0" speed="13.15" length="20.41" shape="-315.01,139.28 -321.84,136.14 -327.33,134.20 -331.48,133.46 -334.29,133.94"/>
    </edge>
    <edge id=":gneJ102_1" function="internal">
        <lane id=":gneJ102_1_0" index="0" speed="6.26" length="15.29" shape="-315.01,139.28 -317.83,136.41 -318.14,132.80 -316.25,129.71 -312.44,128.40"/>
    </edge>
    <edge id=":gneJ102_2" function="internal">
        <lane id=":gneJ102_2_0" index="0" speed="5.60" length="11.85" shape="-312.44,131.60 -316.56,131.90 -318.12,132.80 -317.13,134.31 -313.58,136.42"/>
    </edge>
    <edge id=":gneJ102_3" function="internal">
        <lane id=":gneJ102_3_0" index="0" speed="13.89" length="22.08" shape="-312.44,131.60 -317.34,131.65 -323.57,131.93 -329.70,132.63 -334.29,133.94"/>
    </edge>
    <edge id=":gneJ102_4" function="internal">
        <lane id=":gneJ102_4_0" index="0" speed="13.89" length="23.53" shape="-335.72,131.07 -330.90,129.71 -324.28,128.90 -317.56,128.50 -312.44,128.40"/>
    </edge>
    <edge id=":gneJ102_5" function="internal">
        <lane id=":gneJ102_5_0" index="0" speed="13.89" length="7.57" shape="-335.72,131.07 -332.19,130.33 -328.27,130.85"/>
    </edge>
    <edge id=":gneJ102_6" function="internal">
        <lane id=":gneJ102_6_0" index="0" speed="13.89" length="15.75" shape="-328.27,130.85 -327.33,130.98 -321.12,133.01 -313.58,136.42"/>
    </edge>
    <edge id=":gneJ103_0" function="internal">
        <lane id=":gneJ103_0_0" index="0" speed="6.51" length="9.03" shape="-291.60,137.20 -291.95,134.75 -293.00,133.00 -294.75,131.95 -297.20,131.60"/>
    </edge>
    <edge id=":gneJ103_1" function="internal">
        <lane id=":gneJ103_1_0" index="0" speed="8.00" length="14.19" shape="-291.60,137.20 -291.05,133.35 -289.40,130.60 -286.65,128.95 -282.80,128.40"/>
    </edge>
    <edge id=":gneJ103_2" function="internal">
        <lane id=":gneJ103_2_0" index="0" speed="6.51" length="9.03" shape="-282.80,131.60 -285.25,131.95 -287.00,133.00 -288.05,134.75 -288.40,137.20"/>
    </edge>
    <edge id=":gneJ103_3" function="internal">
        <lane id=":gneJ103_3_0" index="0" speed="13.89" length="14.40" shape="-282.80,131.60 -297.20,131.60"/>
    </edge>
    <edge id=":gneJ103_4" function="internal">
        <lane id=":gneJ103_4_0" index="0" speed="13.89" length="14.40" shape="-297.20,128.40 -282.80,128.40"/>
    </edge>
    <edge id=":gneJ103_5" function="internal">
        <lane id=":gneJ103_5_0" index="0" speed="8.00" length="5.93" shape="-297.20,128.40 -293.35,128.95 -291.60,130.00"/>
    </edge>
    <edge id=":gneJ103_6" function="internal">
        <lane id=":gneJ103_6_0" index="0" speed="8.00" length="8.26" shape="-291.60,130.00 -290.60,130.60 -288.95,133.35 -288.40,137.20"/>
    </edge>
    <edge id=":gneJ104_0" function="internal">
        <lane id=":gneJ104_0_0" index="0" speed="6.51" length="9.03" shape="-261.60,137.20 -261.95,134.75 -263.00,133.00 -264.75,131.95 -267.20,131.60"/>
    </edge>
    <edge id=":gneJ104_1" function="internal">
        <lane id=":gneJ104_1_0" index="0" speed="8.00" length="14.19" shape="-261.60,137.20 -261.05,133.35 -259.40,130.60 -256.65,128.95 -252.80,128.40"/>
    </edge>
    <edge id=":gneJ104_2" function="internal">
        <lane id=":gneJ104_2_0" index="0" speed="6.51" length="9.03" shape="-252.80,131.60 -255.25,131.95 -257.00,133.00 -258.05,134.75 -258.40,137.20"/>
    </edge>
    <edge id=":gneJ104_3" function="internal">
        <lane id=":gneJ104_3_0" index="0" speed="13.89" length="14.40" shape="-252.80,131.60 -267.20,131.60"/>
    </edge>
    <edge id=":gneJ104_4" function="internal">
        <lane id=":gneJ104_4_0" index="0" speed="13.89" length="14.40" shape="-267.20,128.40 -252.80,128.40"/>
    </edge>
    <edge id=":gneJ104_5" function="internal">
        <lane id=":gneJ104_5_0" index="0" speed="8.00" length="5.93" shape="-267.20,128.40 -263.35,128.95 -261.60,130.00"/>
    </edge>
    <edge id=":gneJ104_6" function="internal">
        <lane id=":gneJ104_6_0" index="0" speed="8.00" length="8.26" shape="-261.60,130.00 -260.60,130.60 -258.95,133.35 -258.40,137.20"/>
    </edge>
    <edge id=":gneJ105_0" function="internal">
        <lane id=":gneJ105_0_0" index="0" speed="6.51" length="9.03" shape="-231.60,137.20 -231.95,134.75 -233.00,133.00 -234.75,131.95 -237.20,131.60"/>
    </edge>
    <edge id=":gneJ105_1" function="internal">
        <lane id=":gneJ105_1_0" index="0" speed="8.00" length="14.19" shape="-231.60,137.20 -231.05,133.35 -229.40,130.60 -226.65,128.95 -222.80,128.40"/>
    </edge>
    <edge id=":gneJ105_2" function="internal">
        <lane id=":gneJ105_2_0" index="0" speed="6.51" length="9.03" shape="-222.80,131.60 -225.25,131.95 -227.00,133.00 -228.05,134.75 -228.40,137.20"/>
    </edge>
    <edge id=":gneJ105_3" function="internal">
        <lane id=":gneJ105_3_0" index="0" speed="13.89" length="14.40" shape="-222.80,131.60 -237.20,131.60"/>
    </edge>
    <edge id=":gneJ105_4" function="internal">
        <lane id=":gneJ105_4_0" index="0" speed="13.89" length="14.40" shape="-237.20,128.40 -222.80,128.40"/>
    </edge>
    <edge id=":gneJ105_5" function="internal">
        <lane id=":gneJ105_5_0" index="0" speed="8.00" length="5.93" shape="-237.20,128.40 -233.35,128.95 -231.60,130.00"/>
    </edge>
    <edge id=":gneJ105_6" function="internal">
        <lane id=":gneJ105_6_0" index="0" speed="8.00" length="8.26" shape="-231.60,130.00 -230.60,130.60 -228.95,133.35 -228.40,137.20"/>
    </edge>
    <edge id=":gneJ106_0" function="internal">
        <lane id=":gneJ106_0_0" index="0" speed="6.51" length="9.03" shape="-201.60,137.20 -201.95,134.75 -203.00,133.00 -204.75,131.95 -207.20,131.60"/>
    </edge>
    <edge id=":gneJ106_1" function="internal">
        <lane id=":gneJ106_1_0" index="0" speed="8.00" length="14.19" shape="-201.60,137.20 -201.05,133.35 -199.40,130.60 -196.65,128.95 -192.80,128.40"/>
    </edge>
    <edge id=":gneJ106_2" function="internal">
        <lane id=":gneJ106_2_0" index="0" speed="6.51" length="9.03" shape="-192.80,131.60 -195.25,131.95 -197.00,133.00 -198.05,134.75 -198.40,137.20"/>
    </edge>
    <edge id=":gneJ106_3" function="internal">
        <lane id=":gneJ106_3_0" index="0" speed="13.89" length="14.40" shape="-192.80,131.60 -207.20,131.60"/>
    </edge>
    <edge id=":gneJ106_4" function="internal">
        <lane id=":gneJ106_4_0" index="0" speed="13.89" length="14.40" shape="-207.20,128.40 -192.80,128.40"/>
    </edge>
    <edge id=":gneJ106_5" function="internal">
        <lane id=":gneJ106_5_0" index="0" speed="8.00" length="5.93" shape="-207.20,128.40 -203.35,128.95 -201.60,130.00"/>
    </edge>
    <edge id=":gneJ106_6" function="internal">
        <lane id=":gneJ106_6_0" index="0" speed="8.00" length="8.26" shape="-201.60,130.00 -200.60,130.60 -198.95,133.35 -198.40,137.20"/>
    </edge>
    <edge id=":gneJ107_0" function="internal">
        <lane id=":gneJ107_0_0" index="0" speed="6.51" length="9.03" shape="-171.60,137.20 -171.95,134.75 -173.00,133.00 -174.75,131.95 -177.20,131.60"/>
    </edge>
    <edge id=":gneJ107_1" function="internal">
        <lane id=":gneJ107_1_0" index="0" speed="8.00" length="14.19" shape="-171.60,137.20 -171.05,133.35 -169.40,130.60 -166.65,128.95 -162.80,128.40"/>
    </edge>
    <edge id=":gneJ107_2" function="internal">
        <lane id=":gneJ107_2_0" index="0" speed="6.51" length="9.03" shape="-162.80,131.60 -165.25,131.95 -167.00,133.00 -168.05,134.75 -168.40,137.20"/>
    </edge>
    <edge id=":gneJ107_3" function="internal">
        <lane id=":gneJ107_3_0" index="0" speed="13.89" length="14.40" shape="-162.80,131.60 -177.20,131.60"/>
    </edge>
    <edge id=":gneJ107_4" function="internal">
        <lane id=":gneJ107_4_0" index="0" speed="13.89" length="14.40" shape="-177.20,128.40 -162.80,128.40"/>
    </edge>
    <edge id=":gneJ107_5" function="internal">
        <lane id=":gneJ107_5_0" index="0" speed="8.00" length="5.93" shape="-177.20,128.40 -173.35,128.95 -171.60,130.00"/>
    </edge>
    <edge id=":gneJ107_6" function="internal">
        <lane id=":gneJ107_6_0" index="0" speed="8.00" length="8.26" shape="-171.60,130.00 -170.60,130.60 -168.95,133.35 -168.40,137.20"/>
    </edge>
    <edge id=":gneJ108_0" function="internal">
        <lane id=":gneJ108_0_0" index="0" speed="4.20" length="1.26" shape="-140.19,132.07 -140.44,131.86 -140.71,131.72 -141.01,131.63 -141.33,131.60"/>
    </edge>
    <edge id=":gneJ108_1" function="internal">
        <lane id=":gneJ108_1_0" index="0" speed="6.63" length="3.77" shape="-141.33,128.40 -140.37,128.49 -139.48,128.75 -138.67,129.19 -137.93,129.81"/>
    </edge>
    <edge id=":gneJ109_0" function="internal">
        <lane id=":gneJ109_0_0" index="0" speed="5.67" length="9.24" shape="-116.05,158.80 -117.88,156.72 -119.62,156.10 -121.27,156.93 -122.82,159.23"/>
    </edge>
    <edge id=":gneJ109_1" function="internal">
        <lane id=":gneJ109_1_0" index="0" speed="13.89" length="15.45" shape="-116.05,158.80 -118.22,155.65 -120.54,152.50 -123.00,149.47 -125.59,146.67"/>
    </edge>
    <edge id=":gneJ109_2" function="internal">
        <lane id=":gneJ109_2_0" index="0" speed="13.89" length="16.08" shape="-123.33,144.41 -120.67,147.29 -118.07,150.48 -115.62,153.80 -113.39,157.03"/>
    </edge>
    <edge id=":gneJ109_3" function="internal">
        <lane id=":gneJ109_3_0" index="0" speed="9.64" length="5.90" shape="-123.33,144.41 -121.32,147.31 -120.81,149.63"/>
    </edge>
    <edge id=":gneJ109_6" function="internal">
        <lane id=":gneJ109_6_0" index="0" speed="9.64" length="9.98" shape="-120.81,149.63 -120.56,150.75 -121.07,154.72 -122.82,159.23"/>
    </edge>
    <edge id=":gneJ109_4" function="internal">
        <lane id=":gneJ109_4_0" index="0" speed="8.40" length="11.88" shape="-125.69,157.79 -124.28,154.29 -123.79,151.27 -124.23,148.73 -125.59,146.67"/>
    </edge>
    <edge id=":gneJ109_5" function="internal">
        <lane id=":gneJ109_5_0" index="0" speed="7.41" length="16.77" shape="-125.69,157.79 -122.86,153.63 -119.87,152.11 -116.71,153.25 -113.39,157.03"/>
    </edge>
    <edge id=":gneJ11_0" function="internal">
        <lane id=":gneJ11_0_0" index="0" speed="6.51" length="9.03" shape="288.40,137.20 288.05,134.75 287.00,133.00 285.25,131.95 282.80,131.60"/>
    </edge>
    <edge id=":gneJ11_1" function="internal">
        <lane id=":gneJ11_1_0" index="0" speed="8.00" length="14.19" shape="288.40,137.20 288.95,133.35 290.60,130.60 293.35,128.95 297.20,128.40"/>
    </edge>
    <edge id=":gneJ11_2" function="internal">
        <lane id=":gneJ11_2_0" index="0" speed="6.51" length="9.03" shape="297.20,131.60 294.75,131.95 293.00,133.00 291.95,134.75 291.60,137.20"/>
    </edge>
    <edge id=":gneJ11_3" function="internal">
        <lane id=":gneJ11_3_0" index="0" speed="13.89" length="14.40" shape="297.20,131.60 282.80,131.60"/>
    </edge>
    <edge id=":gneJ11_4" function="internal">
        <lane id=":gneJ11_4_0" index="0" speed="13.89" length="14.40" shape="282.80,128.40 297.20,128.40"/>
    </edge>
    <edge id=":gneJ11_5" function="internal">
        <lane id=":gneJ11_5_0" index="0" speed="8.00" length="5.93" shape="282.80,128.40 286.65,128.95 288.40,130.00"/>
    </edge>
    <edge id=":gneJ11_6" function="internal">
        <lane id=":gneJ11_6_0" index="0" speed="8.00" length="8.26" shape="288.40,130.00 289.40,130.60 291.05,133.35 291.60,137.20"/>
    </edge>
    <edge id=":gneJ110_0" function="internal">
        <lane id=":gneJ110_0_0" index="0" speed="6.70" length="6.22" shape="-95.55,181.60 -97.16,181.79 -98.53,182.37 -99.67,183.34 -100.56,184.70"/>
    </edge>
    <edge id=":gneJ110_1" function="internal">
        <lane id=":gneJ110_1_0" index="0" speed="8.83" length="9.65" shape="-95.55,181.60 -98.05,181.33 -100.25,180.52 -102.14,179.17 -103.73,177.29"/>
    </edge>
    <edge id=":gneJ110_2" function="internal">
        <lane id=":gneJ110_2_0" index="0" speed="7.35" length="6.50" shape="-101.07,175.51 -100.00,176.77 -98.73,177.68 -97.24,178.22 -95.55,178.40"/>
    </edge>
    <edge id=":gneJ110_3" function="internal">
        <lane id=":gneJ110_3_0" index="0" speed="8.47" length="3.74" shape="-101.07,175.51 -99.94,177.72 -99.70,178.95"/>
    </edge>
    <edge id=":gneJ110_6" function="internal">
        <lane id=":gneJ110_6_0" index="0" speed="8.47" length="5.93" shape="-99.70,178.95 -99.48,179.99 -99.69,182.32 -100.56,184.70"/>
    </edge>
    <edge id=":gneJ110_4" function="internal">
        <lane id=":gneJ110_4_0" index="0" speed="6.94" length="6.29" shape="-103.42,183.26 -102.85,181.71 -102.71,180.19 -103.01,178.72 -103.73,177.29"/>
    </edge>
    <edge id=":gneJ110_5" function="internal">
        <lane id=":gneJ110_5_0" index="0" speed="8.25" length="9.78" shape="-103.42,183.26 -102.02,181.14 -100.24,179.62 -98.08,178.70 -95.55,178.40"/>
    </edge>
    <edge id=":gneJ111_0" function="internal">
        <lane id=":gneJ111_0_0" index="0" speed="6.51" length="9.03" shape="-81.60,187.20 -81.95,184.75 -83.00,183.00 -84.75,181.95 -87.20,181.60"/>
    </edge>
    <edge id=":gneJ111_1" function="internal">
        <lane id=":gneJ111_1_0" index="0" speed="13.89" length="11.11" shape="-81.60,187.20 -81.60,176.09"/>
    </edge>
    <edge id=":gneJ111_2" function="internal">
        <lane id=":gneJ111_2_0" index="0" speed="13.89" length="11.11" shape="-78.40,176.09 -78.40,187.20"/>
    </edge>
    <edge id=":gneJ111_3" function="internal">
        <lane id=":gneJ111_3_0" index="0" speed="7.31" length="3.99" shape="-78.40,176.09 -78.95,178.50 -80.00,179.60"/>
    </edge>
    <edge id=":gneJ111_6" function="internal">
        <lane id=":gneJ111_6_0" index="0" speed="7.31" length="7.67" shape="-80.00,179.60 -80.60,180.22 -83.35,181.26 -87.20,181.60"/>
    </edge>
    <edge id=":gneJ111_4" function="internal">
        <lane id=":gneJ111_4_0" index="0" speed="5.67" length="6.60" shape="-87.20,178.40 -84.75,178.26 -83.00,177.82 -81.95,177.10 -81.60,176.09"/>
    </edge>
    <edge id=":gneJ111_5" function="internal">
        <lane id=":gneJ111_5_0" index="0" speed="8.00" length="14.19" shape="-87.20,178.40 -83.35,178.95 -80.60,180.60 -78.95,183.35 -78.40,187.20"/>
    </edge>
    <edge id=":gneJ112_0" function="internal">
        <lane id=":gneJ112_0_0" index="0" speed="13.89" length="11.87" shape="-81.60,175.89 -81.60,164.02"/>
    </edge>
    <edge id=":gneJ112_1" function="internal">
        <lane id=":gneJ112_1_0" index="0" speed="6.97" length="4.68" shape="-81.60,175.89 -80.94,172.51 -80.00,171.71"/>
    </edge>
    <edge id=":gneJ112_6" function="internal">
        <lane id=":gneJ112_6_0" index="0" speed="6.97" length="9.57" shape="-80.00,171.71 -78.97,170.85 -75.68,170.90 -71.08,172.67"/>
    </edge>
    <edge id=":gneJ112_2" function="internal">
        <lane id=":gneJ112_2_0" index="0" speed="5.16" length="7.18" shape="-72.51,175.54 -75.09,174.45 -76.93,174.15 -78.03,174.63 -78.40,175.89"/>
    </edge>
    <edge id=":gneJ112_3" function="internal">
        <lane id=":gneJ112_3_0" index="0" speed="10.24" length="15.45" shape="-72.51,175.54 -76.49,173.11 -79.33,170.38 -81.03,167.35 -81.60,164.02"/>
    </edge>
    <edge id=":gneJ112_4" function="internal">
        <lane id=":gneJ112_4_0" index="0" speed="9.05" length="11.91" shape="-78.40,164.02 -77.94,166.43 -76.57,168.68 -74.28,170.76 -71.08,172.67"/>
    </edge>
    <edge id=":gneJ112_5" function="internal">
        <lane id=":gneJ112_5_0" index="0" speed="13.89" length="11.87" shape="-78.40,164.02 -78.40,175.89"/>
    </edge>
    <edge id=":gneJ12_0" function="internal">
        <lane id=":gneJ12_0_0" index="0" speed="6.51" length="9.03" shape="328.40,137.20 328.05,134.75 327.00,133.00 325.25,131.95 322.80,131.60"/>
    </edge>
    <edge id=":gneJ12_1" function="internal">
        <lane id=":gneJ12_1_0" index="0" speed="8.00" length="14.19" shape="328.40,137.20 328.95,133.35 330.60,130.60 333.35,128.95 337.20,128.40"/>
    </edge>
    <edge id=":gneJ12_2" function="internal">
        <lane id=":gneJ12_2_0" index="0" speed="6.51" length="9.03" shape="337.20,131.60 334.75,131.95 333.00,133.00 331.95,134.75 331.60,137.20"/>
    </edge>
    <edge id=":gneJ12_3" function="internal">
        <lane id=":gneJ12_3_0" index="0" speed="13.89" length="14.40" shape="337.20,131.60 322.80,131.60"/>
    </edge>
    <edge id=":gneJ12_4" function="internal">
        <lane id=":gneJ12_4_0" index="0" speed="13.89" length="14.40" shape="322.80,128.40 337.20,128.40"/>
    </edge>
    <edge id=":gneJ12_5" function="internal">
        <lane id=":gneJ12_5_0" index="0" speed="8.00" length="5.93" shape="322.80,128.40 326.65,128.95 328.40,130.00"/>
    </edge>
    <edge id=":gneJ12_6" function="internal">
        <lane id=":gneJ12_6_0" index="0" speed="8.00" length="8.26" shape="328.40,130.00 329.40,130.60 331.05,133.35 331.60,137.20"/>
    </edge>
    <edge id=":gneJ13_0" function="internal">
        <lane id=":gneJ13_0_0" index="0" speed="6.51" length="9.03" shape="368.40,137.20 368.05,134.75 367.00,133.00 365.25,131.95 362.80,131.60"/>
    </edge>
    <edge id=":gneJ13_1" function="internal">
        <lane id=":gneJ13_1_0" index="0" speed="8.00" length="14.19" shape="368.40,137.20 368.95,133.35 370.60,130.60 373.35,128.95 377.20,128.40"/>
    </edge>
    <edge id=":gneJ13_2" function="internal">
        <lane id=":gneJ13_2_0" index="0" speed="6.51" length="9.03" shape="377.20,131.60 374.75,131.95 373.00,133.00 371.95,134.75 371.60,137.20"/>
    </edge>
    <edge id=":gneJ13_3" function="internal">
        <lane id=":gneJ13_3_0" index="0" speed="13.89" length="14.40" shape="377.20,131.60 362.80,131.60"/>
    </edge>
    <edge id=":gneJ13_4" function="internal">
        <lane id=":gneJ13_4_0" index="0" speed="13.89" length="14.40" shape="362.80,128.40 377.20,128.40"/>
    </edge>
    <edge id=":gneJ13_5" function="internal">
        <lane id=":gneJ13_5_0" index="0" speed="8.00" length="5.93" shape="362.80,128.40 366.65,128.95 368.40,130.00"/>
    </edge>
    <edge id=":gneJ13_6" function="internal">
        <lane id=":gneJ13_6_0" index="0" speed="8.00" length="8.26" shape="368.40,130.00 369.40,130.60 371.05,133.35 371.60,137.20"/>
    </edge>
    <edge id=":gneJ14_0" function="internal">
        <lane id=":gneJ14_0_0" index="0" speed="6.51" length="9.03" shape="408.40,137.20 408.05,134.75 407.00,133.00 405.25,131.95 402.80,131.60"/>
    </edge>
    <edge id=":gneJ14_1" function="internal">
        <lane id=":gneJ14_1_0" index="0" speed="8.00" length="14.19" shape="408.40,137.20 408.95,133.35 410.60,130.60 413.35,128.95 417.20,128.40"/>
    </edge>
    <edge id=":gneJ14_2" function="internal">
        <lane id=":gneJ14_2_0" index="0" speed="6.51" length="9.03" shape="417.20,131.60 414.75,131.95 413.00,133.00 411.95,134.75 411.60,137.20"/>
    </edge>
    <edge id=":gneJ14_3" function="internal">
        <lane id=":gneJ14_3_0" index="0" speed="13.89" length="14.40" shape="417.20,131.60 402.80,131.60"/>
    </edge>
    <edge id=":gneJ14_4" function="internal">
        <lane id=":gneJ14_4_0" index="0" speed="13.89" length="14.40" shape="402.80,128.40 417.20,128.40"/>
    </edge>
    <edge id=":gneJ14_5" function="internal">
        <lane id=":gneJ14_5_0" index="0" speed="8.00" length="5.93" shape="402.80,128.40 406.65,128.95 408.40,130.00"/>
    </edge>
    <edge id=":gneJ14_6" function="internal">
        <lane id=":gneJ14_6_0" index="0" speed="8.00" length="8.26" shape="408.40,130.00 409.40,130.60 411.05,133.35 411.60,137.20"/>
    </edge>
    <edge id=":gneJ15_0" function="internal">
        <lane id=":gneJ15_0_0" index="0" speed="7.02" length="10.67" shape="445.72,134.65 443.32,133.98 441.12,134.47 439.12,136.12 437.33,138.92"/>
    </edge>
    <edge id=":gneJ15_1" function="internal">
        <lane id=":gneJ15_1_0" index="0" speed="13.89" length="15.33" shape="445.72,134.65 442.21,133.23 438.47,132.29 434.63,131.76 430.82,131.60"/>
    </edge>
    <edge id=":gneJ15_2" function="internal">
        <lane id=":gneJ15_2_0" index="0" speed="13.89" length="16.80" shape="430.82,128.40 434.85,128.62 439.19,129.26 443.42,130.32 447.16,131.79"/>
    </edge>
    <edge id=":gneJ15_3" function="internal">
        <lane id=":gneJ15_3_0" index="0" speed="7.44" length="7.41" shape="430.82,128.40 435.64,129.06 437.70,130.57"/>
    </edge>
    <edge id=":gneJ15_6" function="internal">
        <lane id=":gneJ15_6_0" index="0" speed="7.44" length="8.99" shape="437.70,130.57 438.33,131.03 438.89,134.32 437.33,138.92"/>
    </edge>
    <edge id=":gneJ15_4" function="internal">
        <lane id=":gneJ15_4_0" index="0" speed="5.74" length="9.18" shape="434.46,137.49 435.34,134.91 435.03,133.07 433.52,131.97 430.82,131.60"/>
    </edge>
    <edge id=":gneJ15_5" function="internal">
        <lane id=":gneJ15_5_0" index="0" speed="8.42" length="15.82" shape="434.46,137.49 437.07,133.52 440.05,131.25 443.41,130.67 447.16,131.79"/>
    </edge>
    <edge id=":gneJ16_0" function="internal">
        <lane id=":gneJ16_0_0" index="0" speed="6.25" length="9.05" shape="485.46,155.56 483.18,154.48 481.18,154.44 479.46,155.46 478.02,157.54"/>
    </edge>
    <edge id=":gneJ16_1" function="internal">
        <lane id=":gneJ16_1_0" index="0" speed="13.89" length="14.61" shape="485.46,155.56 482.36,153.56 479.27,151.68 476.12,149.91 472.84,148.21"/>
    </edge>
    <edge id=":gneJ16_2" function="internal">
        <lane id=":gneJ16_2_0" index="0" speed="13.89" length="15.00" shape="474.28,145.35 477.60,147.08 480.87,148.92 484.08,150.86 487.23,152.90"/>
    </edge>
    <edge id=":gneJ16_3" function="internal">
        <lane id=":gneJ16_3_0" index="0" speed="8.09" length="6.11" shape="474.28,145.35 477.46,147.59 478.61,149.48"/>
    </edge>
    <edge id=":gneJ16_6" function="internal">
        <lane id=":gneJ16_6_0" index="0" speed="8.09" length="8.43" shape="478.61,149.48 479.15,150.36 479.33,153.68 478.02,157.54"/>
    </edge>
    <edge id=":gneJ16_4" function="internal">
        <lane id=":gneJ16_4_0" index="0" speed="6.62" length="9.38" shape="475.16,156.10 476.02,153.59 475.93,151.44 474.87,149.64 472.84,148.21"/>
    </edge>
    <edge id=":gneJ16_5" function="internal">
        <lane id=":gneJ16_5_0" index="0" speed="7.79" length="14.69" shape="475.16,156.10 477.50,152.74 480.29,151.08 483.53,151.14 487.23,152.90"/>
    </edge>
    <edge id=":gneJ17_0" function="internal">
        <lane id=":gneJ17_0_0" index="0" speed="13.89" length="13.81" shape="515.33,164.90 513.38,167.89 511.65,170.74 510.02,173.66 508.38,176.82"/>
    </edge>
    <edge id=":gneJ17_1" function="internal">